ucte/ucte-network/src/test/resources/20170322_1844_SN3_FR2.uct
##C 2007.05.01
Informations      : 20170322_1844_SN3_FR2.uct
Date of situation : 2017/03/22 18:44
Copyright (c) 2017, RTE
This Source Code Form is subject to the terms of the Mozilla Public
License, v. 2.0. If a copy of the MPL was not distributed with this
file, You can obtain one at http://mozilla.org/MPL/2.0/.
##N
##ZFR
FFNGEN71 FNGEN__ GEN- 0 2 24.000 0.00000 0.00000 -800.00 0.00000 9999.00 -9999.0 999.000 -999.00
FFNHV111 FNHV1__ HV1- 0 0        0.00000 0.00000 0.00000 0.00000
FFNHV211 FNHV2__ HV2- 0 0        0.00000 0.00000 0.00000 0.00000
FFNHV311 FNHV3__ HV3- 0 3 400.00 0.00000 0.00000 0.00000 0.00000 9999.00 -9999.0 9999.00 -9999.0
FFNLOA31 FNLOAD_ OAD- 0 0        600.000 400.000 0.00000 0.00000
##L
FFNHV111 FFNHV211 1 0 3.0035 32.995 385.9970   1519 NHV1    -NHV
FFNHV111 FFNHV211 2 0 3.0035 32.995 385.9970   1519 NHV1    -NHV
FFNHV211 FFNHV311 1 0 3.0035 32.995 385.9970   1519 NHV2    -NHV
##T
FFNGEN71 FFNHV111 1 0 24.00 400.0 1300. 0.0010 0.0500 0.000000 0.0000   9999 NGEN    -NHV
FFNHV211 FFNLOA31 L 0 400.0 158.0 1000. 0.3360 15.997 -5.48435 1.2500   9999 NHV2    -NLO
##R
FFNHV211 FFNLOA31 L 1.000 10   0
